# Microsoft Developer Studio Project File - Name="Mt3dmsReader2" - Package Owner=<4>
# Microsoft Developer Studio Generated Build File, Format Version 6.00
# ** DO NOT EDIT **

# TARGTYPE "Win32 (x86) Dynamic-Link Library" 0x0102

CFG=Mt3dmsReader2 - Win32 Debug
!MESSAGE This is not a valid makefile. To build this project using NMAKE,
!MESSAGE use the Export Makefile command and run
!MESSAGE 
!MESSAGE NMAKE /f "Mt3dmsReader2.mak".
!MESSAGE 
!MESSAGE You can specify a configuration when running NMAKE
!MESSAGE by defining the macro CFG on the command line. For example:
!MESSAGE 
!MESSAGE NMAKE /f "Mt3dmsReader2.mak" CFG="Mt3dmsReader2 - Win32 Debug"
!MESSAGE 
!MESSAGE Possible choices for configuration are:
!MESSAGE 
!MESSAGE "Mt3dmsReader2 - Win32 Release" (based on "Win32 (x86) Dynamic-Link Library")
!MESSAGE "Mt3dmsReader2 - Win32 Debug" (based on "Win32 (x86) Dynamic-Link Library")
!MESSAGE 

# Begin Project
# PROP AllowPerConfigDependencies 0
# PROP Scc_ProjName "Mt3dmsReader2"
# PROP Scc_LocalPath ".."
CPP=cl.exe
F90=df.exe
MTL=midl.exe
RSC=rc.exe

!IF  "$(CFG)" == "Mt3dmsReader2 - Win32 Release"

# PROP BASE Use_MFC 0
# PROP BASE Use_Debug_Libraries 0
# PROP BASE Output_Dir "Release"
# PROP BASE Intermediate_Dir "Release"
# PROP BASE Target_Dir ""
# PROP Use_MFC 0
# PROP Use_Debug_Libraries 0
# PROP Output_Dir "Release"
# PROP Intermediate_Dir "Release"
# PROP Ignore_Export_Lib 0
# PROP Target_Dir ""
# ADD BASE F90 /compile_only /include:"Release/" /dll /nologo /warn:nofileopt
# ADD F90 /assume:underscore /compile_only /convert:big_endian /iface:nomixed_str_len_arg /include:"Release/" /dll /names:lowercase /nologo /warn:nofileopt
# ADD BASE CPP /nologo /MT /W3 /GX /O2 /D "WIN32" /D "NDEBUG" /D "_WINDOWS" /D "_MBCS" /D "_USRDLL" /D "MT3DMSREADER2_EXPORTS" /YX /FD /c
# ADD CPP /nologo /MT /W3 /GX /O2 /D "WIN32" /D "NDEBUG" /D "_WINDOWS" /D "_MBCS" /D "_USRDLL" /D "MT3DMSREADER2_EXPORTS" /YX /FD /c
# ADD BASE MTL /nologo /D "NDEBUG" /mktyplib203 /win32
# ADD MTL /nologo /D "NDEBUG" /mktyplib203 /win32
# ADD BASE RSC /l 0x409 /d "NDEBUG"
# ADD RSC /l 0x409 /d "NDEBUG"
BSC32=bscmake.exe
# ADD BASE BSC32 /nologo
# ADD BSC32 /nologo
LINK32=link.exe
# ADD BASE LINK32 kernel32.lib user32.lib gdi32.lib winspool.lib comdlg32.lib advapi32.lib shell32.lib ole32.lib oleaut32.lib uuid.lib odbc32.lib odbccp32.lib /nologo /dll /machine:I386
# ADD LINK32 kernel32.lib user32.lib gdi32.lib winspool.lib comdlg32.lib advapi32.lib shell32.lib ole32.lib oleaut32.lib uuid.lib odbc32.lib odbccp32.lib /nologo /dll /machine:I386 /out:"Release/mt_r2.dll"
# Begin Special Build Tool
SOURCE="$(InputPath)"
PostBuild_Cmds=copy .\Release\mt_r2.dll ..\ModelViewer\Release\mt_r2.dll
# End Special Build Tool

!ELSEIF  "$(CFG)" == "Mt3dmsReader2 - Win32 Debug"

# PROP BASE Use_MFC 0
# PROP BASE Use_Debug_Libraries 1
# PROP BASE Output_Dir "Debug"
# PROP BASE Intermediate_Dir "Debug"
# PROP BASE Target_Dir ""
# PROP Use_MFC 0
# PROP Use_Debug_Libraries 1
# PROP Output_Dir "Debug"
# PROP Intermediate_Dir "Debug"
# PROP Ignore_Export_Lib 0
# PROP Target_Dir ""
# ADD BASE F90 /check:bounds /compile_only /debug:full /include:"Debug/" /dll /nologo /traceback /warn:argument_checking /warn:nofileopt
# ADD F90 /assume:underscore /check:bounds /compile_only /convert:big_endian /debug:full /iface:nomixed_str_len_arg /include:"Debug/" /dll /names:lowercase /nologo /traceback /warn:argument_checking /warn:nofileopt
# ADD BASE CPP /nologo /MTd /W3 /Gm /GX /ZI /Od /D "WIN32" /D "_DEBUG" /D "_WINDOWS" /D "_MBCS" /D "_USRDLL" /D "MT3DMSREADER2_EXPORTS" /YX /FD /GZ /c
# ADD CPP /nologo /MTd /W3 /Gm /GX /Zi /Od /D "WIN32" /D "_DEBUG" /D "_WINDOWS" /D "_MBCS" /D "_USRDLL" /D "MT3DMSREADER2_EXPORTS" /YX /FD /GZ /c
# ADD BASE MTL /nologo /D "_DEBUG" /mktyplib203 /win32
# ADD MTL /nologo /D "_DEBUG" /mktyplib203 /win32
# ADD BASE RSC /l 0x409 /d "_DEBUG"
# ADD RSC /l 0x409 /d "_DEBUG"
BSC32=bscmake.exe
# ADD BASE BSC32 /nologo
# ADD BSC32 /nologo
LINK32=link.exe
# ADD BASE LINK32 kernel32.lib user32.lib gdi32.lib winspool.lib comdlg32.lib advapi32.lib shell32.lib ole32.lib oleaut32.lib uuid.lib odbc32.lib odbccp32.lib /nologo /dll /debug /machine:I386 /pdbtype:sept
# ADD LINK32 kernel32.lib user32.lib gdi32.lib winspool.lib comdlg32.lib advapi32.lib shell32.lib ole32.lib oleaut32.lib uuid.lib odbc32.lib odbccp32.lib /nologo /dll /profile /debug /machine:I386 /out:"Debug/mt_r2.dll"
# Begin Special Build Tool
SOURCE="$(InputPath)"
PostBuild_Cmds=copy .\Debug\mt_r2.dll ..\ModelViewer\Debug\mt_r2.dll
# End Special Build Tool

!ENDIF 

# Begin Target

# Name "Mt3dmsReader2 - Win32 Release"
# Name "Mt3dmsReader2 - Win32 Debug"
# Begin Group "Source Files"

# PROP Default_Filter "cpp;c;cxx;rc;def;r;odl;idl;hpj;bat;f90;for;f;fpp"
# Begin Source File

SOURCE=..\Mt3dmsReader\IoUnit.f
# End Source File
# Begin Source File

SOURCE=..\Mt3dmsReader\Mt3dmsCommon.f

!IF  "$(CFG)" == "Mt3dmsReader2 - Win32 Release"

!ELSEIF  "$(CFG)" == "Mt3dmsReader2 - Win32 Debug"

!ENDIF 

F90_MODOUT=\
	"mtmodule"

# End Source File
# Begin Source File

SOURCE=.\Mt3dmsReader2.f
# End Source File
# End Group
# Begin Group "Header Files"

# PROP Default_Filter "h;hpp;hxx;hm;inl;fi;fd"
# End Group
# Begin Group "Resource Files"

# PROP Default_Filter "ico;cur;bmp;dlg;rc2;rct;bin;rgs;gif;jpg;jpeg;jpe"
# End Group
# End Target
# End Project
